pair_style gran/hooke/history/energy 1 0
0
0, 50.5, 50
LIGGGHTS 1.2.8 based on lammps-10Mar10
	dimension 3
	atom_style granular
	boundary f f f
	newton off
	region dominio block 0 100 0 100 0 100 units box
	create_box 2 dominio
Created orthogonal box = (0 0 0) to (100 100 100)
	create_atoms 1 single 49.0 50.0 50 units box
Created 1 atoms
	create_atoms 2 single 	50.5 	50 50 units box
Created 1 atoms
	set atom 1 vx 	10
Setting atom values ...
  1 settings made for vx
	set atom 1 vy 	0
Setting atom values ...
  1 settings made for vy
	set atom 1 diameter 2
Setting atom values ...
  1 settings made for diameter
	set atom 1 density  1.90985485103132161955691
Setting atom values ...
  1 settings made for density
	set atom 1 omegay   0
Setting atom values ...
  1 settings made for omegay
	set	atom 2 vx 0
Setting atom values ...
  1 settings made for vx
	set	atom 2 vy 0
Setting atom values ...
  1 settings made for vy
	set atom 2 diameter 1
Setting atom values ...
  1 settings made for diameter
	set atom 2 density  1.90985485103132161955691
Setting atom values ...
  1 settings made for density
	neighbor		1 bin
	neigh_modify	delay 0
	fix 			m1 all property/global youngsModulus peratomtype 763.94194041252864782277e7 763.94194041252864782277e7
	fix 			m2 all property/global poissonsRatio peratomtype 0.3 0.3
	fix 			m3 all property/global coefficientRestitution peratomtypepair 2 0.5 0.5 0.5 0.5
	fix 			m4 all property/global coefficientFriction peratomtypepair 2 0.5 0.5 0.5 0.5
	fix 		 	m5 all property/global characteristicVelocity scalar 10
	pair_style		gran/hooke/history/energy  1  0
	pair_coeff		* *
	communicate		single vel yes
	fix    			1 all nve/sphere
	timestep		0.0000001
	run 0
Setting up run ...
Step Temp E_pair E_mol TotEng Press
0    266.66604            0            0    199.99953 0.00026666604
Loop time of 0 on 1 procs for 0 steps with 2 atoms

Pair  time (%) = 0 (0)
Neigh time (%) = 0 (0)
Comm  time (%) = 0 (0)
Outpt time (%) = 0 (0)
Other time (%) = 0 (0)

	compute			rot_e all erotate/sphere
	compute		    	epotN all reduce sum f_CPEn
	compute			edisN all reduce sum f_CDEn
	compute			epotT all reduce sum f_CPEt
	compute			edisTV all reduce sum f_CDEVt
	compute			edisTF all reduce sum f_CDEFt
	compute			workT all reduce sum f_CTFW
	compute			edisH all reduce sum f_DEH
	variable		eCon equal "ke + c_rot_e + c_epotN"
	variable		eTot equal "v_eCon + c_edisN + c_workT + c_edisTF+c_edisTV+c_edisH"
	variable		eKin equal "ke"
	thermo_style		custom step atoms ke c_rot_e c_epotN c_epotT c_edisN c_edisTV c_edisTF c_workT v_eCon v_eTot c_edisH
	thermo			1000
	thermo_modify		lost ignore norm no
	compute_modify		thermo_temp dynamic yes
	dump			mydmp all custom 10 files/dump-SubStep_hooke_history_energy-0_En0_5_COF0_5_PO0_3.0 id type mass x y z ix iy iz vx vy vz fx fy fz omegax omegay omegaz radius f_CPEn f_CDEn f_CPEt f_CDEVt f_CDEFt f_CTFW f_DEH
	run			10000
Setting up run ...
Step Atoms KinEng rot_e epotN epotT edisN edisTV edisTF workT eCon eTot edisH
0        2    399.99906            0            0            0            0            0            0            0    399.99906    399.99906            0
Averages over the last 6 of 11 rows, steps 5000 to 10000:
Atoms KinEng rot_e epotN epotT edisN edisTV edisTF workT eCon eTot edisH
2 366.669 0 0 0 0 0 0 0 366.669 400.006 33.3375
Loop time of 0.0300519 on 1 procs for 10000 steps with 2 atoms

Pair  time (%) = 0.00465107 (15.4768)
Neigh time (%) = 0 (0)
Comm  time (%) = 0.000484943 (1.61368)
Outpt time (%) = 0.0189471 (63.0479)
Other time (%) = 0.00596881 (19.8616)

files/SubStep_hooke_history_energy-0_En0_5_COF0_5_PO0_3_0_0.dat
files/SubStep_hooke_history_energy-0_En0_5_COF0_5_PO0_3_0_1.dat
files/SubStep_hooke_history_energy-0_En0_5_COF0_5_PO0_3_0_2.dat
~0.08726646259971647885
~0.08726646259971647885, ~50.49429204713761829844, 50.13073361412148726034
LIGGGHTS 1.2.8 based on lammps-10Mar10
	dimension 3
	atom_style granular
	boundary f f f
	newton off
	region dominio block 0 100 0 100 0 100 units box
	create_box 2 dominio
Created orthogonal box = (0 0 0) to (100 100 100)
	create_atoms 1 single 49.0 50.0 50 units box
Created 1 atoms
	create_atoms 2 single 	~50.49429204713761829844 	50.13073361412148726034 50 units box
Created 1 atoms
	set atom 1 vx 	10
Setting atom values ...
  1 settings made for vx
	set atom 1 vy 	0
Setting atom values ...
  1 settings made for vy
	set atom 1 diameter 2
Setting atom values ...
  1 settings made for diameter
	set atom 1 density  1.90985485103132161955691
Setting atom values ...
  1 settings made for density
	set atom 1 omegay   0
Setting atom values ...
  1 settings made for omegay
	set	atom 2 vx 0
Setting atom values ...
  1 settings made for vx
	set	atom 2 vy 0
Setting atom values ...
  1 settings made for vy
	set atom 2 diameter 1
Setting atom values ...
  1 settings made for diameter
	set atom 2 density  1.90985485103132161955691
Setting atom values ...
  1 settings made for density
	neighbor		1 bin
	neigh_modify	delay 0
	fix 			m1 all property/global youngsModulus peratomtype 763.94194041252864782277e7 763.94194041252864782277e7
	fix 			m2 all property/global poissonsRatio peratomtype 0.3 0.3
	fix 			m3 all property/global coefficientRestitution peratomtypepair 2 0.5 0.5 0.5 0.5
	fix 			m4 all property/global coefficientFriction peratomtypepair 2 0.5 0.5 0.5 0.5
	fix 		 	m5 all property/global characteristicVelocity scalar 10
	pair_style		gran/hooke/history/energy  1  0
	pair_coeff		* *
	communicate		single vel yes
	fix    			1 all nve/sphere
	timestep		0.0000001
	run 0
Setting up run ...
Step Temp E_pair E_mol TotEng Press
0    266.66604            0            0    199.99953 0.00026666604
Loop time of 0 on 1 procs for 0 steps with 2 atoms

Pair  time (%) = 0 (0)
Neigh time (%) = 0 (0)
Comm  time (%) = 0 (0)
Outpt time (%) = 0 (0)
Other time (%) = 0 (0)

	compute			rot_e all erotate/sphere
	compute		    	epotN all reduce sum f_CPEn
	compute			edisN all reduce sum f_CDEn
	compute			epotT all reduce sum f_CPEt
	compute			edisTV all reduce sum f_CDEVt
	compute			edisTF all reduce sum f_CDEFt
	compute			workT all reduce sum f_CTFW
	compute			edisH all reduce sum f_DEH
	variable		eCon equal "ke + c_rot_e + c_epotN"
	variable		eTot equal "v_eCon + c_edisN + c_workT + c_edisTF+c_edisTV+c_edisH"
	variable		eKin equal "ke"
	thermo_style		custom step atoms ke c_rot_e c_epotN c_epotT c_edisN c_edisTV c_edisTF c_workT v_eCon v_eTot c_edisH
	thermo			1000
	thermo_modify		lost ignore norm no
	compute_modify		thermo_temp dynamic yes
	dump			mydmp all custom 10 files/dump-SubStep_hooke_history_energy-0_En0_5_COF0_5_PO0_3.5 id type mass x y z ix iy iz vx vy vz fx fy fz omegax omegay omegaz radius f_CPEn f_CDEn f_CPEt f_CDEVt f_CDEFt f_CTFW f_DEH
	run			10000
Setting up run ...
Step Atoms KinEng rot_e epotN epotT edisN edisTV edisTF workT eCon eTot edisH
0        2    399.99906            0            0            0            0            0            0            0    399.99906    399.99906            0
Averages over the last 6 of 11 rows, steps 5000 to 10000:
Atoms KinEng rot_e epotN epotT edisN edisTV edisTF workT eCon eTot edisH
2 399.999 0 0 0 0 0 0 0 399.999 399.999 0
Loop time of 0.028748 on 1 procs for 10000 steps with 2 atoms

Pair  time (%) = 0.00260234 (9.05223)
Neigh time (%) = 0 (0)
Comm  time (%) = 0.000495672 (1.7242)
Outpt time (%) = 0.0196705 (68.4238)
Other time (%) = 0.00597954 (20.7998)

files/SubStep_hooke_history_energy-0_En0_5_COF0_5_PO0_3_5_0.dat
files/SubStep_hooke_history_energy-0_En0_5_COF0_5_PO0_3_5_1.dat
files/SubStep_hooke_history_energy-0_En0_5_COF0_5_PO0_3_5_2.dat
~0.17453292519943295769
~0.17453292519943295769, ~50.47721162951831208906, ~50.26047226650039552328
LIGGGHTS 1.2.8 based on lammps-10Mar10
	dimension 3
	atom_style granular
	boundary f f f
	newton off
	region dominio block 0 100 0 100 0 100 units box
	create_box 2 dominio
Created orthogonal box = (0 0 0) to (100 100 100)
	create_atoms 1 single 49.0 50.0 50 units box
Created 1 atoms
	create_atoms 2 single 	~50.47721162951831208906 	~50.26047226650039552328 50 units box
Created 1 atoms
	set atom 1 vx 	10
Setting atom values ...
  1 settings made for vx
	set atom 1 vy 	0
Setting atom values ...
  1 settings made for vy
	set atom 1 diameter 2
Setting atom values ...
  1 settings made for diameter
	set atom 1 density  1.90985485103132161955691
Setting atom values ...
  1 settings made for density
	set atom 1 omegay   0
Setting atom values ...
  1 settings made for omegay
	set	atom 2 vx 0
Setting atom values ...
  1 settings made for vx
	set	atom 2 vy 0
Setting atom values ...
  1 settings made for vy
	set atom 2 diameter 1
Setting atom values ...
  1 settings made for diameter
	set atom 2 density  1.90985485103132161955691
Setting atom values ...
  1 settings made for density
	neighbor		1 bin
	neigh_modify	delay 0
	fix 			m1 all property/global youngsModulus peratomtype 763.94194041252864782277e7 763.94194041252864782277e7
	fix 			m2 all property/global poissonsRatio peratomtype 0.3 0.3
	fix 			m3 all property/global coefficientRestitution peratomtypepair 2 0.5 0.5 0.5 0.5
	fix 			m4 all property/global coefficientFriction peratomtypepair 2 0.5 0.5 0.5 0.5
	fix 		 	m5 all property/global characteristicVelocity scalar 10
	pair_style		gran/hooke/history/energy  1  0
	pair_coeff		* *
	communicate		single vel yes
	fix    			1 all nve/sphere
	timestep		0.0000001
	run 0
Setting up run ...
Step Temp E_pair E_mol TotEng Press
0    266.66604            0            0    199.99953 0.00026666604
Loop time of 0 on 1 procs for 0 steps with 2 atoms

Pair  time (%) = 0 (0)
Neigh time (%) = 0 (0)
Comm  time (%) = 0 (0)
Outpt time (%) = 0 (0)
Other time (%) = 0 (0)

	compute			rot_e all erotate/sphere
	compute		    	epotN all reduce sum f_CPEn
	compute			edisN all reduce sum f_CDEn
	compute			epotT all reduce sum f_CPEt
	compute			edisTV all reduce sum f_CDEVt
	compute			edisTF all reduce sum f_CDEFt
	compute			workT all reduce sum f_CTFW
	compute			edisH all reduce sum f_DEH
	variable		eCon equal "ke + c_rot_e + c_epotN"
	variable		eTot equal "v_eCon + c_edisN + c_workT + c_edisTF+c_edisTV+c_edisH"
	variable		eKin equal "ke"
	thermo_style		custom step atoms ke c_rot_e c_epotN c_epotT c_edisN c_edisTV c_edisTF c_workT v_eCon v_eTot c_edisH
	thermo			1000
	thermo_modify		lost ignore norm no
	compute_modify		thermo_temp dynamic yes
	dump			mydmp all custom 10 files/dump-SubStep_hooke_history_energy-0_En0_5_COF0_5_PO0_3.10 id type mass x y z ix iy iz vx vy vz fx fy fz omegax omegay omegaz radius f_CPEn f_CDEn f_CPEt f_CDEVt f_CDEFt f_CTFW f_DEH
	run			10000
Setting up run ...
Step Atoms KinEng rot_e epotN epotT edisN edisTV edisTF workT eCon eTot edisH
0        2    399.99906            0            0            0            0            0            0            0    399.99906    399.99906            0
Averages over the last 6 of 11 rows, steps 5000 to 10000:
Atoms KinEng rot_e epotN epotT edisN edisTV edisTF workT eCon eTot edisH
2 399.999 0 0 0 0 0 0 0 399.999 399.999 0
Loop time of 0.0309649 on 1 procs for 10000 steps with 2 atoms

Pair  time (%) = 0.00272799 (8.80994)
Neigh time (%) = 0 (0)
Comm  time (%) = 0.000637293 (2.05812)
Outpt time (%) = 0.0213068 (68.8095)
Other time (%) = 0.00629282 (20.3225)

files/SubStep_hooke_history_energy-0_En0_5_COF0_5_PO0_3_10_0.dat
files/SubStep_hooke_history_energy-0_En0_5_COF0_5_PO0_3_10_1.dat
files/SubStep_hooke_history_energy-0_En0_5_COF0_5_PO0_3_10_2.dat
0.26179938779914943654
0.26179938779914943654, ~50.44888873943360243012, ~49.61177143234621885648
LIGGGHTS 1.2.8 based on lammps-10Mar10
	dimension 3
	atom_style granular
	boundary f f f
	newton off
	region dominio block 0 100 0 100 0 100 units box
	create_box 2 dominio
Created orthogonal box = (0 0 0) to (100 100 100)
	create_atoms 1 single 49.0 50.0 50 units box
Created 1 atoms
	create_atoms 2 single 	~50.44888873943360243012 	~49.61177143234621885648 50 units box
Created 1 atoms
	set atom 1 vx 	10
Setting atom values ...
  1 settings made for vx
	set atom 1 vy 	0
Setting atom values ...
  1 settings made for vy
	set atom 1 diameter 2
Setting atom values ...
  1 settings made for diameter
	set atom 1 density  1.90985485103132161955691
Setting atom values ...
  1 settings made for density
	set atom 1 omegay   0
Setting atom values ...
  1 settings made for omegay
	set	atom 2 vx 0
Setting atom values ...
  1 settings made for vx
	set	atom 2 vy 0
Setting atom values ...
  1 settings made for vy
	set atom 2 diameter 1
Setting atom values ...
  1 settings made for diameter
	set atom 2 density  1.90985485103132161955691
Setting atom values ...
  1 settings made for density
	neighbor		1 bin
	neigh_modify	delay 0
	fix 			m1 all property/global youngsModulus peratomtype 763.94194041252864782277e7 763.94194041252864782277e7
	fix 			m2 all property/global poissonsRatio peratomtype 0.3 0.3
	fix 			m3 all property/global coefficientRestitution peratomtypepair 2 0.5 0.5 0.5 0.5
	fix 			m4 all property/global coefficientFriction peratomtypepair 2 0.5 0.5 0.5 0.5
	fix 		 	m5 all property/global characteristicVelocity scalar 10
	pair_style		gran/hooke/history/energy  1  0
	pair_coeff		* *
	communicate		single vel yes
	fix    			1 all nve/sphere
	timestep		0.0000001
	run 0
Setting up run ...
Step Temp E_pair E_mol TotEng Press
0    266.66604            0            0    199.99953 0.00026666604
Loop time of 0 on 1 procs for 0 steps with 2 atoms

Pair  time (%) = 0 (0)
Neigh time (%) = 0 (0)
Comm  time (%) = 0 (0)
Outpt time (%) = 0 (0)
Other time (%) = 0 (0)

	compute			rot_e all erotate/sphere
	compute		    	epotN all reduce sum f_CPEn
	compute			edisN all reduce sum f_CDEn
	compute			epotT all reduce sum f_CPEt
	compute			edisTV all reduce sum f_CDEVt
	compute			edisTF all reduce sum f_CDEFt
	compute			workT all reduce sum f_CTFW
	compute			edisH all reduce sum f_DEH
	variable		eCon equal "ke + c_rot_e + c_epotN"
	variable		eTot equal "v_eCon + c_edisN + c_workT + c_edisTF+c_edisTV+c_edisH"
	variable		eKin equal "ke"
	thermo_style		custom step atoms ke c_rot_e c_epotN c_epotT c_edisN c_edisTV c_edisTF c_workT v_eCon v_eTot c_edisH
	thermo			1000
	thermo_modify		lost ignore norm no
	compute_modify		thermo_temp dynamic yes
	dump			mydmp all custom 10 files/dump-SubStep_hooke_history_energy-0_En0_5_COF0_5_PO0_3.15 id type mass x y z ix iy iz vx vy vz fx fy fz omegax omegay omegaz radius f_CPEn f_CDEn f_CPEt f_CDEVt f_CDEFt f_CTFW f_DEH
	run			10000
Setting up run ...
Step Atoms KinEng rot_e epotN epotT edisN edisTV edisTF workT eCon eTot edisH
0        2    399.99906            0            0            0            0            0            0            0    399.99906    399.99906            0
Averages over the last 6 of 11 rows, steps 5000 to 10000:
Atoms KinEng rot_e epotN epotT edisN edisTV edisTF workT eCon eTot edisH
2 399.999 0 0 0 0 0 0 0 399.999 399.999 0
Loop time of 0.0327821 on 1 procs for 10000 steps with 2 atoms

Pair  time (%) = 0.00282907 (8.62994)
Neigh time (%) = 0 (0)
Comm  time (%) = 0.000599861 (1.82984)
Outpt time (%) = 0.0229182 (69.9108)
Other time (%) = 0.00643492 (19.6294)

files/SubStep_hooke_history_energy-0_En0_5_COF0_5_PO0_3_15_0.dat
files/SubStep_hooke_history_energy-0_En0_5_COF0_5_PO0_3_15_1.dat
files/SubStep_hooke_history_energy-0_En0_5_COF0_5_PO0_3_15_2.dat
~0.34906585039886591539
~0.34906585039886591539, ~50.40953893117886257608, ~50.51303021498850309958
LIGGGHTS 1.2.8 based on lammps-10Mar10
	dimension 3
	atom_style granular
	boundary f f f
	newton off
	region dominio block 0 100 0 100 0 100 units box
	create_box 2 dominio
Created orthogonal box = (0 0 0) to (100 100 100)
	create_atoms 1 single 49.0 50.0 50 units box
Created 1 atoms
	create_atoms 2 single 	~50.40953893117886257608 	~50.51303021498850309958 50 units box
Created 1 atoms
	set atom 1 vx 	10
Setting atom values ...
  1 settings made for vx
	set atom 1 vy 	0
Setting atom values ...
  1 settings made for vy
	set atom 1 diameter 2
Setting atom values ...
  1 settings made for diameter
	set atom 1 density  1.90985485103132161955691
Setting atom values ...
  1 settings made for density
	set atom 1 omegay   0
Setting atom values ...
  1 settings made for omegay
	set	atom 2 vx 0
Setting atom values ...
  1 settings made for vx
	set	atom 2 vy 0
Setting atom values ...
  1 settings made for vy
	set atom 2 diameter 1
Setting atom values ...
  1 settings made for diameter
	set atom 2 density  1.90985485103132161955691
Setting atom values ...
  1 settings made for density
	neighbor		1 bin
	neigh_modify	delay 0
	fix 			m1 all property/global youngsModulus peratomtype 763.94194041252864782277e7 763.94194041252864782277e7
	fix 			m2 all property/global poissonsRatio peratomtype 0.3 0.3
	fix 			m3 all property/global coefficientRestitution peratomtypepair 2 0.5 0.5 0.5 0.5
	fix 			m4 all property/global coefficientFriction peratomtypepair 2 0.5 0.5 0.5 0.5
	fix 		 	m5 all property/global characteristicVelocity scalar 10
	pair_style		gran/hooke/history/energy  1  0
	pair_coeff		* *
	communicate		single vel yes
	fix    			1 all nve/sphere
	timestep		0.0000001
	run 0
Setting up run ...
Step Temp E_pair E_mol TotEng Press
0    266.66604            0            0    199.99953 0.00026666604
Loop time of 9.53674e-07 on 1 procs for 0 steps with 2 atoms

Pair  time (%) = 0 (0)
Neigh time (%) = 0 (0)
Comm  time (%) = 0 (0)
Outpt time (%) = 0 (0)
Other time (%) = 9.53674e-07 (100)

	compute			rot_e all erotate/sphere
	compute		    	epotN all reduce sum f_CPEn
	compute			edisN all reduce sum f_CDEn
	compute			epotT all reduce sum f_CPEt
	compute			edisTV all reduce sum f_CDEVt
	compute			edisTF all reduce sum f_CDEFt
	compute			workT all reduce sum f_CTFW
	compute			edisH all reduce sum f_DEH
	variable		eCon equal "ke + c_rot_e + c_epotN"
	variable		eTot equal "v_eCon + c_edisN + c_workT + c_edisTF+c_edisTV+c_edisH"
	variable		eKin equal "ke"
	thermo_style		custom step atoms ke c_rot_e c_epotN c_epotT c_edisN c_edisTV c_edisTF c_workT v_eCon v_eTot c_edisH
	thermo			1000
	thermo_modify		lost ignore norm no
	compute_modify		thermo_temp dynamic yes
	dump			mydmp all custom 10 files/dump-SubStep_hooke_history_energy-0_En0_5_COF0_5_PO0_3.20 id type mass x y z ix iy iz vx vy vz fx fy fz omegax omegay omegaz radius f_CPEn f_CDEn f_CPEt f_CDEVt f_CDEFt f_CTFW f_DEH
	run			10000
Setting up run ...
Step Atoms KinEng rot_e epotN epotT edisN edisTV edisTF workT eCon eTot edisH
0        2    399.99906            0            0            0            0            0            0            0    399.99906    399.99906            0
Averages over the last 6 of 11 rows, steps 5000 to 10000:
Atoms KinEng rot_e epotN epotT edisN edisTV edisTF workT eCon eTot edisH
2 399.999 0 0 0 0 0 0 0 399.999 399.999 0
Loop time of 0.034174 on 1 procs for 10000 steps with 2 atoms

Pair  time (%) = 0.00279927 (8.19124)
Neigh time (%) = 0 (0)
Comm  time (%) = 0.000549793 (1.60881)
Outpt time (%) = 0.024379 (71.338)
Other time (%) = 0.00644588 (18.862)

files/SubStep_hooke_history_energy-0_En0_5_COF0_5_PO0_3_20_0.dat
files/SubStep_hooke_history_energy-0_En0_5_COF0_5_PO0_3_20_1.dat
files/SubStep_hooke_history_energy-0_En0_5_COF0_5_PO0_3_20_2.dat
~0.43633231299858239423
~0.43633231299858239423, 50.35946168055497494486, ~50.63392739261104915428
LIGGGHTS 1.2.8 based on lammps-10Mar10
	dimension 3
	atom_style granular
	boundary f f f
	newton off
	region dominio block 0 100 0 100 0 100 units box
	create_box 2 dominio
Created orthogonal box = (0 0 0) to (100 100 100)
	create_atoms 1 single 49.0 50.0 50 units box
Created 1 atoms
	create_atoms 2 single 	50.35946168055497494486 	~50.63392739261104915428 50 units box
Created 1 atoms
	set atom 1 vx 	10
Setting atom values ...
  1 settings made for vx
	set atom 1 vy 	0
Setting atom values ...
  1 settings made for vy
	set atom 1 diameter 2
Setting atom values ...
  1 settings made for diameter
	set atom 1 density  1.90985485103132161955691
Setting atom values ...
  1 settings made for density
	set atom 1 omegay   0
Setting atom values ...
  1 settings made for omegay
	set	atom 2 vx 0
Setting atom values ...
  1 settings made for vx
	set	atom 2 vy 0
Setting atom values ...
  1 settings made for vy
	set atom 2 diameter 1
Setting atom values ...
  1 settings made for diameter
	set atom 2 density  1.90985485103132161955691
Setting atom values ...
  1 settings made for density
	neighbor		1 bin
	neigh_modify	delay 0
	fix 			m1 all property/global youngsModulus peratomtype 763.94194041252864782277e7 763.94194041252864782277e7
	fix 			m2 all property/global poissonsRatio peratomtype 0.3 0.3
	fix 			m3 all property/global coefficientRestitution peratomtypepair 2 0.5 0.5 0.5 0.5
	fix 			m4 all property/global coefficientFriction peratomtypepair 2 0.5 0.5 0.5 0.5
	fix 		 	m5 all property/global characteristicVelocity scalar 10
	pair_style		gran/hooke/history/energy  1  0
	pair_coeff		* *
	communicate		single vel yes
	fix    			1 all nve/sphere
	timestep		0.0000001
	run 0
Setting up run ...
Step Temp E_pair E_mol TotEng Press
0    266.66604            0            0    199.99953 0.00026666604
Loop time of 0 on 1 procs for 0 steps with 2 atoms

Pair  time (%) = 0 (0)
Neigh time (%) = 0 (0)
Comm  time (%) = 0 (0)
Outpt time (%) = 0 (0)
Other time (%) = 0 (0)

	compute			rot_e all erotate/sphere
	compute		    	epotN all reduce sum f_CPEn
	compute			edisN all reduce sum f_CDEn
	compute			epotT all reduce sum f_CPEt
	compute			edisTV all reduce sum f_CDEVt
	compute			edisTF all reduce sum f_CDEFt
	compute			workT all reduce sum f_CTFW
	compute			edisH all reduce sum f_DEH
	variable		eCon equal "ke + c_rot_e + c_epotN"
	variable		eTot equal "v_eCon + c_edisN + c_workT + c_edisTF+c_edisTV+c_edisH"
	variable		eKin equal "ke"
	thermo_style		custom step atoms ke c_rot_e c_epotN c_epotT c_edisN c_edisTV c_edisTF c_workT v_eCon v_eTot c_edisH
	thermo			1000
	thermo_modify		lost ignore norm no
	compute_modify		thermo_temp dynamic yes
	dump			mydmp all custom 10 files/dump-SubStep_hooke_history_energy-0_En0_5_COF0_5_PO0_3.25 id type mass x y z ix iy iz vx vy vz fx fy fz omegax omegay omegaz radius f_CPEn f_CDEn f_CPEt f_CDEVt f_CDEFt f_CTFW f_DEH
	run			10000
Setting up run ...
Step Atoms KinEng rot_e epotN epotT edisN edisTV edisTF workT eCon eTot edisH
0        2    399.99906            0            0            0            0            0            0            0    399.99906    399.99906            0
Averages over the last 6 of 11 rows, steps 5000 to 10000:
Atoms KinEng rot_e epotN epotT edisN edisTV edisTF workT eCon eTot edisH
2 399.999 0 0 0 0 0 0 0 399.999 399.999 0
Loop time of 0.0319078 on 1 procs for 10000 steps with 2 atoms

Pair  time (%) = 0.00272465 (8.53913)
Neigh time (%) = 0 (0)
Comm  time (%) = 0.00069356 (2.17364)
Outpt time (%) = 0.0220926 (69.2388)
Other time (%) = 0.00639701 (20.0484)

files/SubStep_hooke_history_energy-0_En0_5_COF0_5_PO0_3_25_0.dat
files/SubStep_hooke_history_energy-0_En0_5_COF0_5_PO0_3_25_1.dat
files/SubStep_hooke_history_energy-0_En0_5_COF0_5_PO0_3_25_2.dat
0.52359877559829887308
0.52359877559829887308, 50.29903810567665797014, 49.25
LIGGGHTS 1.2.8 based on lammps-10Mar10
	dimension 3
	atom_style granular
	boundary f f f
	newton off
	region dominio block 0 100 0 100 0 100 units box
	create_box 2 dominio
Created orthogonal box = (0 0 0) to (100 100 100)
	create_atoms 1 single 49.0 50.0 50 units box
Created 1 atoms
	create_atoms 2 single 	50.29903810567665797014 	49.25 50 units box
Created 1 atoms
	set atom 1 vx 	10
Setting atom values ...
  1 settings made for vx
	set atom 1 vy 	0
Setting atom values ...
  1 settings made for vy
	set atom 1 diameter 2
Setting atom values ...
  1 settings made for diameter
	set atom 1 density  1.90985485103132161955691
Setting atom values ...
  1 settings made for density
	set atom 1 omegay   0
Setting atom values ...
  1 settings made for omegay
	set	atom 2 vx 0
Setting atom values ...
  1 settings made for vx
	set	atom 2 vy 0
Setting atom values ...
  1 settings made for vy
	set atom 2 diameter 1
Setting atom values ...
  1 settings made for diameter
	set atom 2 density  1.90985485103132161955691
Setting atom values ...
  1 settings made for density
	neighbor		1 bin
	neigh_modify	delay 0
	fix 			m1 all property/global youngsModulus peratomtype 763.94194041252864782277e7 763.94194041252864782277e7
	fix 			m2 all property/global poissonsRatio peratomtype 0.3 0.3
	fix 			m3 all property/global coefficientRestitution peratomtypepair 2 0.5 0.5 0.5 0.5
	fix 			m4 all property/global coefficientFriction peratomtypepair 2 0.5 0.5 0.5 0.5
	fix 		 	m5 all property/global characteristicVelocity scalar 10
	pair_style		gran/hooke/history/energy  1  0
	pair_coeff		* *
	communicate		single vel yes
	fix    			1 all nve/sphere
	timestep		0.0000001
	run 0
Setting up run ...
Step Temp E_pair E_mol TotEng Press
0    266.66604            0            0    199.99953 0.00026666604
Loop time of 9.53674e-07 on 1 procs for 0 steps with 2 atoms

Pair  time (%) = 0 (0)
Neigh time (%) = 0 (0)
Comm  time (%) = 0 (0)
Outpt time (%) = 0 (0)
Other time (%) = 9.53674e-07 (100)

	compute			rot_e all erotate/sphere
	compute		    	epotN all reduce sum f_CPEn
	compute			edisN all reduce sum f_CDEn
	compute			epotT all reduce sum f_CPEt
	compute			edisTV all reduce sum f_CDEVt
	compute			edisTF all reduce sum f_CDEFt
	compute			workT all reduce sum f_CTFW
	compute			edisH all reduce sum f_DEH
	variable		eCon equal "ke + c_rot_e + c_epotN"
	variable		eTot equal "v_eCon + c_edisN + c_workT + c_edisTF+c_edisTV+c_edisH"
	variable		eKin equal "ke"
	thermo_style		custom step atoms ke c_rot_e c_epotN c_epotT c_edisN c_edisTV c_edisTF c_workT v_eCon v_eTot c_edisH
	thermo			1000
	thermo_modify		lost ignore norm no
	compute_modify		thermo_temp dynamic yes
	dump			mydmp all custom 10 files/dump-SubStep_hooke_history_energy-0_En0_5_COF0_5_PO0_3.30 id type mass x y z ix iy iz vx vy vz fx fy fz omegax omegay omegaz radius f_CPEn f_CDEn f_CPEt f_CDEVt f_CDEFt f_CTFW f_DEH
	run			10000
Setting up run ...
Step Atoms KinEng rot_e epotN epotT edisN edisTV edisTF workT eCon eTot edisH
0        2    399.99906            0            0            0            0            0            0            0    399.99906    399.99906            0
Averages over the last 6 of 11 rows, steps 5000 to 10000:
Atoms KinEng rot_e epotN epotT edisN edisTV edisTF workT eCon eTot edisH
2 369.521 2.30478 0 0 0 0 0 0 371.826 400.009 28.1835
Loop time of 0.0306671 on 1 procs for 10000 steps with 2 atoms

Pair  time (%) = 0.00465012 (15.1632)
Neigh time (%) = 0 (0)
Comm  time (%) = 0.000467539 (1.52456)
Outpt time (%) = 0.0197258 (64.3224)
Other time (%) = 0.00582361 (18.9898)

files/SubStep_hooke_history_energy-0_En0_5_COF0_5_PO0_3_30_0.dat
files/SubStep_hooke_history_energy-0_En0_5_COF0_5_PO0_3_30_1.dat
files/SubStep_hooke_history_energy-0_En0_5_COF0_5_PO0_3_30_2.dat
~0.61086523819801535193
~0.61086523819801535193, 50.22872806643348768452, ~50.86036465452656914416
LIGGGHTS 1.2.8 based on lammps-10Mar10
	dimension 3
	atom_style granular
	boundary f f f
	newton off
	region dominio block 0 100 0 100 0 100 units box
	create_box 2 dominio
Created orthogonal box = (0 0 0) to (100 100 100)
	create_atoms 1 single 49.0 50.0 50 units box
Created 1 atoms
	create_atoms 2 single 	50.22872806643348768452 	~50.86036465452656914416 50 units box
Created 1 atoms
	set atom 1 vx 	10
Setting atom values ...
  1 settings made for vx
	set atom 1 vy 	0
Setting atom values ...
  1 settings made for vy
	set atom 1 diameter 2
Setting atom values ...
  1 settings made for diameter
	set atom 1 density  1.90985485103132161955691
Setting atom values ...
  1 settings made for density
	set atom 1 omegay   0
Setting atom values ...
  1 settings made for omegay
	set	atom 2 vx 0
Setting atom values ...
  1 settings made for vx
	set	atom 2 vy 0
Setting atom values ...
  1 settings made for vy
	set atom 2 diameter 1
Setting atom values ...
  1 settings made for diameter
	set atom 2 density  1.90985485103132161955691
Setting atom values ...
  1 settings made for density
	neighbor		1 bin
	neigh_modify	delay 0
	fix 			m1 all property/global youngsModulus peratomtype 763.94194041252864782277e7 763.94194041252864782277e7
	fix 			m2 all property/global poissonsRatio peratomtype 0.3 0.3
	fix 			m3 all property/global coefficientRestitution peratomtypepair 2 0.5 0.5 0.5 0.5
	fix 			m4 all property/global coefficientFriction peratomtypepair 2 0.5 0.5 0.5 0.5
	fix 		 	m5 all property/global characteristicVelocity scalar 10
	pair_style		gran/hooke/history/energy  1  0
	pair_coeff		* *
	communicate		single vel yes
	fix    			1 all nve/sphere
	timestep		0.0000001
	run 0
Setting up run ...
Step Temp E_pair E_mol TotEng Press
0    266.66604            0            0    199.99953 0.00026666604
Loop time of 0 on 1 procs for 0 steps with 2 atoms

Pair  time (%) = 0 (0)
Neigh time (%) = 0 (0)
Comm  time (%) = 0 (0)
Outpt time (%) = 0 (0)
Other time (%) = 0 (0)

	compute			rot_e all erotate/sphere
	compute		    	epotN all reduce sum f_CPEn
	compute			edisN all reduce sum f_CDEn
	compute			epotT all reduce sum f_CPEt
	compute			edisTV all reduce sum f_CDEVt
	compute			edisTF all reduce sum f_CDEFt
	compute			workT all reduce sum f_CTFW
	compute			edisH all reduce sum f_DEH
	variable		eCon equal "ke + c_rot_e + c_epotN"
	variable		eTot equal "v_eCon + c_edisN + c_workT + c_edisTF+c_edisTV+c_edisH"
	variable		eKin equal "ke"
	thermo_style		custom step atoms ke c_rot_e c_epotN c_epotT c_edisN c_edisTV c_edisTF c_workT v_eCon v_eTot c_edisH
	thermo			1000
	thermo_modify		lost ignore norm no
	compute_modify		thermo_temp dynamic yes
	dump			mydmp all custom 10 files/dump-SubStep_hooke_history_energy-0_En0_5_COF0_5_PO0_3.35 id type mass x y z ix iy iz vx vy vz fx fy fz omegax omegay omegaz radius f_CPEn f_CDEn f_CPEt f_CDEVt f_CDEFt f_CTFW f_DEH
	run			10000
Setting up run ...
Step Atoms KinEng rot_e epotN epotT edisN edisTV edisTF workT eCon eTot edisH
0        2    399.99906            0            0            0            0            0            0            0    399.99906    399.99906            0
Averages over the last 6 of 11 rows, steps 5000 to 10000:
Atoms KinEng rot_e epotN epotT edisN edisTV edisTF workT eCon eTot edisH
2 399.999 0 0 0 0 0 0 0 399.999 399.999 0
Loop time of 0.025481 on 1 procs for 10000 steps with 2 atoms

Pair  time (%) = 0.00237846 (9.33427)
Neigh time (%) = 0 (0)
Comm  time (%) = 0.0004704 (1.84608)
Outpt time (%) = 0.0168955 (66.3064)
Other time (%) = 0.00573659 (22.5132)

files/SubStep_hooke_history_energy-0_En0_5_COF0_5_PO0_3_35_0.dat
files/SubStep_hooke_history_energy-0_En0_5_COF0_5_PO0_3_35_1.dat
files/SubStep_hooke_history_energy-0_En0_5_COF0_5_PO0_3_35_2.dat
~0.69813170079773183077
~0.69813170079773183077, 50.1490666646784670528, 50.96418141452980898948
LIGGGHTS 1.2.8 based on lammps-10Mar10
	dimension 3
	atom_style granular
	boundary f f f
	newton off
	region dominio block 0 100 0 100 0 100 units box
	create_box 2 dominio
Created orthogonal box = (0 0 0) to (100 100 100)
	create_atoms 1 single 49.0 50.0 50 units box
Created 1 atoms
	create_atoms 2 single 	50.1490666646784670528 	50.96418141452980898948 50 units box
Created 1 atoms
	set atom 1 vx 	10
Setting atom values ...
  1 settings made for vx
	set atom 1 vy 	0
Setting atom values ...
  1 settings made for vy
	set atom 1 diameter 2
Setting atom values ...
  1 settings made for diameter
	set atom 1 density  1.90985485103132161955691
Setting atom values ...
  1 settings made for density
	set atom 1 omegay   0
Setting atom values ...
  1 settings made for omegay
	set	atom 2 vx 0
Setting atom values ...
  1 settings made for vx
	set	atom 2 vy 0
Setting atom values ...
  1 settings made for vy
	set atom 2 diameter 1
Setting atom values ...
  1 settings made for diameter
	set atom 2 density  1.90985485103132161955691
Setting atom values ...
  1 settings made for density
	neighbor		1 bin
	neigh_modify	delay 0
	fix 			m1 all property/global youngsModulus peratomtype 763.94194041252864782277e7 763.94194041252864782277e7
	fix 			m2 all property/global poissonsRatio peratomtype 0.3 0.3
	fix 			m3 all property/global coefficientRestitution peratomtypepair 2 0.5 0.5 0.5 0.5
	fix 			m4 all property/global coefficientFriction peratomtypepair 2 0.5 0.5 0.5 0.5
	fix 		 	m5 all property/global characteristicVelocity scalar 10
	pair_style		gran/hooke/history/energy  1  0
	pair_coeff		* *
	communicate		single vel yes
	fix    			1 all nve/sphere
	timestep		0.0000001
	run 0
Setting up run ...
Step Temp E_pair E_mol TotEng Press
0    266.66604            0            0    199.99953  0.014453933
Loop time of 9.53674e-07 on 1 procs for 0 steps with 2 atoms

Pair  time (%) = 0 (0)
Neigh time (%) = 0 (0)
Comm  time (%) = 0 (0)
Outpt time (%) = 0 (0)
Other time (%) = 9.53674e-07 (100)

	compute			rot_e all erotate/sphere
	compute		    	epotN all reduce sum f_CPEn
	compute			edisN all reduce sum f_CDEn
	compute			epotT all reduce sum f_CPEt
	compute			edisTV all reduce sum f_CDEVt
	compute			edisTF all reduce sum f_CDEFt
	compute			workT all reduce sum f_CTFW
	compute			edisH all reduce sum f_DEH
	variable		eCon equal "ke + c_rot_e + c_epotN"
	variable		eTot equal "v_eCon + c_edisN + c_workT + c_edisTF+c_edisTV+c_edisH"
	variable		eKin equal "ke"
	thermo_style		custom step atoms ke c_rot_e c_epotN c_epotT c_edisN c_edisTV c_edisTF c_workT v_eCon v_eTot c_edisH
	thermo			1000
	thermo_modify		lost ignore norm no
	compute_modify		thermo_temp dynamic yes
	dump			mydmp all custom 10 files/dump-SubStep_hooke_history_energy-0_En0_5_COF0_5_PO0_3.40 id type mass x y z ix iy iz vx vy vz fx fy fz omegax omegay omegaz radius f_CPEn f_CDEn f_CPEt f_CDEVt f_CDEFt f_CTFW f_DEH
	run			10000
Setting up run ...
Step Atoms KinEng rot_e epotN epotT edisN edisTV edisTF workT eCon eTot edisH
0        2    399.99906            0 2.049205e-24            0  0.021736154 0.0054140082 0.0036953854 1.0005947e-05    399.99906    400.02992            0
Averages over the last 6 of 11 rows, steps 5000 to 10000:
Atoms KinEng rot_e epotN epotT edisN edisTV edisTF workT eCon eTot edisH
2 371.282 3.91515 0 0 0 0 0 0 375.197 400.026 24.8294
Loop time of 0.030278 on 1 procs for 10000 steps with 2 atoms

Pair  time (%) = 0.00464487 (15.3408)
Neigh time (%) = 0 (0)
Comm  time (%) = 0.000489473 (1.6166)
Outpt time (%) = 0.0192819 (63.6828)
Other time (%) = 0.00586176 (19.3598)

files/SubStep_hooke_history_energy-0_En0_5_COF0_5_PO0_3_40_0.dat
files/SubStep_hooke_history_energy-0_En0_5_COF0_5_PO0_3_40_1.dat
files/SubStep_hooke_history_energy-0_En0_5_COF0_5_PO0_3_40_2.dat
0.78539816339744830962
0.78539816339744830962, 50.0606601717798212866, 48.9393398282201787134
LIGGGHTS 1.2.8 based on lammps-10Mar10
	dimension 3
	atom_style granular
	boundary f f f
	newton off
	region dominio block 0 100 0 100 0 100 units box
	create_box 2 dominio
Created orthogonal box = (0 0 0) to (100 100 100)
	create_atoms 1 single 49.0 50.0 50 units box
Created 1 atoms
	create_atoms 2 single 	50.0606601717798212866 	48.9393398282201787134 50 units box
Created 1 atoms
	set atom 1 vx 	10
Setting atom values ...
  1 settings made for vx
	set atom 1 vy 	0
Setting atom values ...
  1 settings made for vy
	set atom 1 diameter 2
Setting atom values ...
  1 settings made for diameter
	set atom 1 density  1.90985485103132161955691
Setting atom values ...
  1 settings made for density
	set atom 1 omegay   0
Setting atom values ...
  1 settings made for omegay
	set	atom 2 vx 0
Setting atom values ...
  1 settings made for vx
	set	atom 2 vy 0
Setting atom values ...
  1 settings made for vy
	set atom 2 diameter 1
Setting atom values ...
  1 settings made for diameter
	set atom 2 density  1.90985485103132161955691
Setting atom values ...
  1 settings made for density
	neighbor		1 bin
	neigh_modify	delay 0
	fix 			m1 all property/global youngsModulus peratomtype 763.94194041252864782277e7 763.94194041252864782277e7
	fix 			m2 all property/global poissonsRatio peratomtype 0.3 0.3
	fix 			m3 all property/global coefficientRestitution peratomtypepair 2 0.5 0.5 0.5 0.5
	fix 			m4 all property/global coefficientFriction peratomtypepair 2 0.5 0.5 0.5 0.5
	fix 		 	m5 all property/global characteristicVelocity scalar 10
	pair_style		gran/hooke/history/energy  1  0
	pair_coeff		* *
	communicate		single vel yes
	fix    			1 all nve/sphere
	timestep		0.0000001
	run 0
Setting up run ...
Step Temp E_pair E_mol TotEng Press
0    266.66604            0            0    199.99953 0.00026666604
Loop time of 9.53674e-07 on 1 procs for 0 steps with 2 atoms

Pair  time (%) = 0 (0)
Neigh time (%) = 0 (0)
Comm  time (%) = 0 (0)
Outpt time (%) = 0 (0)
Other time (%) = 9.53674e-07 (100)

	compute			rot_e all erotate/sphere
	compute		    	epotN all reduce sum f_CPEn
	compute			edisN all reduce sum f_CDEn
	compute			epotT all reduce sum f_CPEt
	compute			edisTV all reduce sum f_CDEVt
	compute			edisTF all reduce sum f_CDEFt
	compute			workT all reduce sum f_CTFW
	compute			edisH all reduce sum f_DEH
	variable		eCon equal "ke + c_rot_e + c_epotN"
	variable		eTot equal "v_eCon + c_edisN + c_workT + c_edisTF+c_edisTV+c_edisH"
	variable		eKin equal "ke"
	thermo_style		custom step atoms ke c_rot_e c_epotN c_epotT c_edisN c_edisTV c_edisTF c_workT v_eCon v_eTot c_edisH
	thermo			1000
	thermo_modify		lost ignore norm no
	compute_modify		thermo_temp dynamic yes
	dump			mydmp all custom 10 files/dump-SubStep_hooke_history_energy-0_En0_5_COF0_5_PO0_3.45 id type mass x y z ix iy iz vx vy vz fx fy fz omegax omegay omegaz radius f_CPEn f_CDEn f_CPEt f_CDEVt f_CDEFt f_CTFW f_DEH
	run			10000
Setting up run ...
Step Atoms KinEng rot_e epotN epotT edisN edisTV edisTF workT eCon eTot edisH
0        2    399.99906            0            0            0            0            0            0            0    399.99906    399.99906            0
Averages over the last 6 of 11 rows, steps 5000 to 10000:
Atoms KinEng rot_e epotN epotT edisN edisTV edisTF workT eCon eTot edisH
2 372.123 4.87229 0 0 0 0 0 0 376.995 400.011 23.0156
Loop time of 0.0302041 on 1 procs for 10000 steps with 2 atoms

Pair  time (%) = 0.00470948 (15.5922)
Neigh time (%) = 0 (0)
Comm  time (%) = 0.000468969 (1.55267)
Outpt time (%) = 0.0193129 (63.9413)
Other time (%) = 0.00571275 (18.9138)

files/SubStep_hooke_history_energy-0_En0_5_COF0_5_PO0_3_45_0.dat
files/SubStep_hooke_history_energy-0_En0_5_COF0_5_PO0_3_45_1.dat
files/SubStep_hooke_history_energy-0_En0_5_COF0_5_PO0_3_45_2.dat
~0.87266462599716478847
~0.87266462599716478847, 49.96418141452980898948, ~51.14906666467846705282
LIGGGHTS 1.2.8 based on lammps-10Mar10
	dimension 3
	atom_style granular
	boundary f f f
	newton off
	region dominio block 0 100 0 100 0 100 units box
	create_box 2 dominio
Created orthogonal box = (0 0 0) to (100 100 100)
	create_atoms 1 single 49.0 50.0 50 units box
Created 1 atoms
	create_atoms 2 single 	49.96418141452980898948 	~51.14906666467846705282 50 units box
Created 1 atoms
	set atom 1 vx 	10
Setting atom values ...
  1 settings made for vx
	set atom 1 vy 	0
Setting atom values ...
  1 settings made for vy
	set atom 1 diameter 2
Setting atom values ...
  1 settings made for diameter
	set atom 1 density  1.90985485103132161955691
Setting atom values ...
  1 settings made for density
	set atom 1 omegay   0
Setting atom values ...
  1 settings made for omegay
	set	atom 2 vx 0
Setting atom values ...
  1 settings made for vx
	set	atom 2 vy 0
Setting atom values ...
  1 settings made for vy
	set atom 2 diameter 1
Setting atom values ...
  1 settings made for diameter
	set atom 2 density  1.90985485103132161955691
Setting atom values ...
  1 settings made for density
	neighbor		1 bin
	neigh_modify	delay 0
	fix 			m1 all property/global youngsModulus peratomtype 763.94194041252864782277e7 763.94194041252864782277e7
	fix 			m2 all property/global poissonsRatio peratomtype 0.3 0.3
	fix 			m3 all property/global coefficientRestitution peratomtypepair 2 0.5 0.5 0.5 0.5
	fix 			m4 all property/global coefficientFriction peratomtypepair 2 0.5 0.5 0.5 0.5
	fix 		 	m5 all property/global characteristicVelocity scalar 10
	pair_style		gran/hooke/history/energy  1  0
	pair_coeff		* *
	communicate		single vel yes
	fix    			1 all nve/sphere
	timestep		0.0000001
	run 0
Setting up run ...
Step Temp E_pair E_mol TotEng Press
0    266.66604            0            0    199.99953 0.00026666604
Loop time of 1.19209e-06 on 1 procs for 0 steps with 2 atoms

Pair  time (%) = 0 (0)
Neigh time (%) = 0 (0)
Comm  time (%) = 0 (0)
Outpt time (%) = 0 (0)
Other time (%) = 1.19209e-06 (100)

	compute			rot_e all erotate/sphere
	compute		    	epotN all reduce sum f_CPEn
	compute			edisN all reduce sum f_CDEn
	compute			epotT all reduce sum f_CPEt
	compute			edisTV all reduce sum f_CDEVt
	compute			edisTF all reduce sum f_CDEFt
	compute			workT all reduce sum f_CTFW
	compute			edisH all reduce sum f_DEH
	variable		eCon equal "ke + c_rot_e + c_epotN"
	variable		eTot equal "v_eCon + c_edisN + c_workT + c_edisTF+c_edisTV+c_edisH"
	variable		eKin equal "ke"
	thermo_style		custom step atoms ke c_rot_e c_epotN c_epotT c_edisN c_edisTV c_edisTF c_workT v_eCon v_eTot c_edisH
	thermo			1000
	thermo_modify		lost ignore norm no
	compute_modify		thermo_temp dynamic yes
	dump			mydmp all custom 10 files/dump-SubStep_hooke_history_energy-0_En0_5_COF0_5_PO0_3.50 id type mass x y z ix iy iz vx vy vz fx fy fz omegax omegay omegaz radius f_CPEn f_CDEn f_CPEt f_CDEVt f_CDEFt f_CTFW f_DEH
	run			10000
Setting up run ...
Step Atoms KinEng rot_e epotN epotT edisN edisTV edisTF workT eCon eTot edisH
0        2    399.99906            0            0            0            0            0            0            0    399.99906    399.99906            0
Averages over the last 6 of 11 rows, steps 5000 to 10000:
Atoms KinEng rot_e epotN epotT edisN edisTV edisTF workT eCon eTot edisH
2 399.999 0 0 0 0 0 0 0 399.999 399.999 0
Loop time of 0.0252922 on 1 procs for 10000 steps with 2 atoms

Pair  time (%) = 0.00239587 (9.47277)
Neigh time (%) = 0 (0)
Comm  time (%) = 0.000476122 (1.88249)
Outpt time (%) = 0.0167148 (66.0869)
Other time (%) = 0.00570536 (22.5578)

files/SubStep_hooke_history_energy-0_En0_5_COF0_5_PO0_3_50_0.dat
files/SubStep_hooke_history_energy-0_En0_5_COF0_5_PO0_3_50_1.dat
files/SubStep_hooke_history_energy-0_En0_5_COF0_5_PO0_3_50_2.dat
~0.95993108859688126731
~0.95993108859688126731, ~49.86036465452656914416, ~51.22872806643348768454
LIGGGHTS 1.2.8 based on lammps-10Mar10
	dimension 3
	atom_style granular
	boundary f f f
	newton off
	region dominio block 0 100 0 100 0 100 units box
	create_box 2 dominio
Created orthogonal box = (0 0 0) to (100 100 100)
	create_atoms 1 single 49.0 50.0 50 units box
Created 1 atoms
	create_atoms 2 single 	~49.86036465452656914416 	~51.22872806643348768454 50 units box
Created 1 atoms
	set atom 1 vx 	10
Setting atom values ...
  1 settings made for vx
	set atom 1 vy 	0
Setting atom values ...
  1 settings made for vy
	set atom 1 diameter 2
Setting atom values ...
  1 settings made for diameter
	set atom 1 density  1.90985485103132161955691
Setting atom values ...
  1 settings made for density
	set atom 1 omegay   0
Setting atom values ...
  1 settings made for omegay
	set	atom 2 vx 0
Setting atom values ...
  1 settings made for vx
	set	atom 2 vy 0
Setting atom values ...
  1 settings made for vy
	set atom 2 diameter 1
Setting atom values ...
  1 settings made for diameter
	set atom 2 density  1.90985485103132161955691
Setting atom values ...
  1 settings made for density
	neighbor		1 bin
	neigh_modify	delay 0
	fix 			m1 all property/global youngsModulus peratomtype 763.94194041252864782277e7 763.94194041252864782277e7
	fix 			m2 all property/global poissonsRatio peratomtype 0.3 0.3
	fix 			m3 all property/global coefficientRestitution peratomtypepair 2 0.5 0.5 0.5 0.5
	fix 			m4 all property/global coefficientFriction peratomtypepair 2 0.5 0.5 0.5 0.5
	fix 		 	m5 all property/global characteristicVelocity scalar 10
	pair_style		gran/hooke/history/energy  1  0
	pair_coeff		* *
	communicate		single vel yes
	fix    			1 all nve/sphere
	timestep		0.0000001
	run 0
Setting up run ...
Step Temp E_pair E_mol TotEng Press
0    266.66604            0            0    199.99953 0.00026666604
Loop time of 0 on 1 procs for 0 steps with 2 atoms

Pair  time (%) = 0 (0)
Neigh time (%) = 0 (0)
Comm  time (%) = 0 (0)
Outpt time (%) = 0 (0)
Other time (%) = 0 (0)

	compute			rot_e all erotate/sphere
	compute		    	epotN all reduce sum f_CPEn
	compute			edisN all reduce sum f_CDEn
	compute			epotT all reduce sum f_CPEt
	compute			edisTV all reduce sum f_CDEVt
	compute			edisTF all reduce sum f_CDEFt
	compute			workT all reduce sum f_CTFW
	compute			edisH all reduce sum f_DEH
	variable		eCon equal "ke + c_rot_e + c_epotN"
	variable		eTot equal "v_eCon + c_edisN + c_workT + c_edisTF+c_edisTV+c_edisH"
	variable		eKin equal "ke"
	thermo_style		custom step atoms ke c_rot_e c_epotN c_epotT c_edisN c_edisTV c_edisTF c_workT v_eCon v_eTot c_edisH
	thermo			1000
	thermo_modify		lost ignore norm no
	compute_modify		thermo_temp dynamic yes
	dump			mydmp all custom 10 files/dump-SubStep_hooke_history_energy-0_En0_5_COF0_5_PO0_3.55 id type mass x y z ix iy iz vx vy vz fx fy fz omegax omegay omegaz radius f_CPEn f_CDEn f_CPEt f_CDEVt f_CDEFt f_CTFW f_DEH
	run			10000
Setting up run ...
Step Atoms KinEng rot_e epotN epotT edisN edisTV edisTF workT eCon eTot edisH
0        2    399.99906            0            0            0            0            0            0            0    399.99906    399.99906            0
Averages over the last 6 of 11 rows, steps 5000 to 10000:
Atoms KinEng rot_e epotN epotT edisN edisTV edisTF workT eCon eTot edisH
2 399.999 0 0 0 0 0 0 0 399.999 399.999 0
Loop time of 0.0343421 on 1 procs for 10000 steps with 2 atoms

Pair  time (%) = 0.00290918 (8.4712)
Neigh time (%) = 0 (0)
Comm  time (%) = 0.000668287 (1.94597)
Outpt time (%) = 0.0238209 (69.3636)
Other time (%) = 0.0069437 (20.2192)

files/SubStep_hooke_history_energy-0_En0_5_COF0_5_PO0_3_55_0.dat
files/SubStep_hooke_history_energy-0_En0_5_COF0_5_PO0_3_55_1.dat
files/SubStep_hooke_history_energy-0_En0_5_COF0_5_PO0_3_55_2.dat
1.04719755119659774616
1.04719755119659774616, ~49.74999999999999999998, ~48.70096189432334202984
LIGGGHTS 1.2.8 based on lammps-10Mar10
	dimension 3
	atom_style granular
	boundary f f f
	newton off
	region dominio block 0 100 0 100 0 100 units box
	create_box 2 dominio
Created orthogonal box = (0 0 0) to (100 100 100)
	create_atoms 1 single 49.0 50.0 50 units box
Created 1 atoms
	create_atoms 2 single 	~49.74999999999999999998 	~48.70096189432334202984 50 units box
Created 1 atoms
	set atom 1 vx 	10
Setting atom values ...
  1 settings made for vx
	set atom 1 vy 	0
Setting atom values ...
  1 settings made for vy
	set atom 1 diameter 2
Setting atom values ...
  1 settings made for diameter
	set atom 1 density  1.90985485103132161955691
Setting atom values ...
  1 settings made for density
	set atom 1 omegay   0
Setting atom values ...
  1 settings made for omegay
	set	atom 2 vx 0
Setting atom values ...
  1 settings made for vx
	set	atom 2 vy 0
Setting atom values ...
  1 settings made for vy
	set atom 2 diameter 1
Setting atom values ...
  1 settings made for diameter
	set atom 2 density  1.90985485103132161955691
Setting atom values ...
  1 settings made for density
	neighbor		1 bin
	neigh_modify	delay 0
	fix 			m1 all property/global youngsModulus peratomtype 763.94194041252864782277e7 763.94194041252864782277e7
	fix 			m2 all property/global poissonsRatio peratomtype 0.3 0.3
	fix 			m3 all property/global coefficientRestitution peratomtypepair 2 0.5 0.5 0.5 0.5
	fix 			m4 all property/global coefficientFriction peratomtypepair 2 0.5 0.5 0.5 0.5
	fix 		 	m5 all property/global characteristicVelocity scalar 10
	pair_style		gran/hooke/history/energy  1  0
	pair_coeff		* *
	communicate		single vel yes
	fix    			1 all nve/sphere
	timestep		0.0000001
	run 0
Setting up run ...
Step Temp E_pair E_mol TotEng Press
0    266.66604            0            0    199.99953 0.00026666604
Loop time of 9.53674e-07 on 1 procs for 0 steps with 2 atoms

Pair  time (%) = 0 (0)
Neigh time (%) = 0 (0)
Comm  time (%) = 0 (0)
Outpt time (%) = 0 (0)
Other time (%) = 9.53674e-07 (100)

	compute			rot_e all erotate/sphere
	compute		    	epotN all reduce sum f_CPEn
	compute			edisN all reduce sum f_CDEn
	compute			epotT all reduce sum f_CPEt
	compute			edisTV all reduce sum f_CDEVt
	compute			edisTF all reduce sum f_CDEFt
	compute			workT all reduce sum f_CTFW
	compute			edisH all reduce sum f_DEH
	variable		eCon equal "ke + c_rot_e + c_epotN"
	variable		eTot equal "v_eCon + c_edisN + c_workT + c_edisTF+c_edisTV+c_edisH"
	variable		eKin equal "ke"
	thermo_style		custom step atoms ke c_rot_e c_epotN c_epotT c_edisN c_edisTV c_edisTF c_workT v_eCon v_eTot c_edisH
	thermo			1000
	thermo_modify		lost ignore norm no
	compute_modify		thermo_temp dynamic yes
	dump			mydmp all custom 10 files/dump-SubStep_hooke_history_energy-0_En0_5_COF0_5_PO0_3.60 id type mass x y z ix iy iz vx vy vz fx fy fz omegax omegay omegaz radius f_CPEn f_CDEn f_CPEt f_CDEVt f_CDEFt f_CTFW f_DEH
	run			10000
Setting up run ...
Step Atoms KinEng rot_e epotN epotT edisN edisTV edisTF workT eCon eTot edisH
0        2    399.99906            0            0            0            0            0            0            0    399.99906    399.99906            0
Averages over the last 6 of 11 rows, steps 5000 to 10000:
Atoms KinEng rot_e epotN epotT edisN edisTV edisTF workT eCon eTot edisH
2 399.999 0 0 0 0 0 0 0 399.999 399.999 0
Loop time of 0.02967 on 1 procs for 10000 steps with 2 atoms

Pair  time (%) = 0.00268054 (9.03451)
Neigh time (%) = 0 (0)
Comm  time (%) = 0.000528574 (1.78151)
Outpt time (%) = 0.020304 (68.4326)
Other time (%) = 0.00615692 (20.7513)

files/SubStep_hooke_history_energy-0_En0_5_COF0_5_PO0_3_60_0.dat
files/SubStep_hooke_history_energy-0_En0_5_COF0_5_PO0_3_60_1.dat
files/SubStep_hooke_history_energy-0_En0_5_COF0_5_PO0_3_60_2.dat
~1.13446401379631422501
~1.13446401379631422501, 49.63392739261104915427, ~51.35946168055497494488
LIGGGHTS 1.2.8 based on lammps-10Mar10
	dimension 3
	atom_style granular
	boundary f f f
	newton off
	region dominio block 0 100 0 100 0 100 units box
	create_box 2 dominio
Created orthogonal box = (0 0 0) to (100 100 100)
	create_atoms 1 single 49.0 50.0 50 units box
Created 1 atoms
	create_atoms 2 single 	49.63392739261104915427 	~51.35946168055497494488 50 units box
Created 1 atoms
	set atom 1 vx 	10
Setting atom values ...
  1 settings made for vx
	set atom 1 vy 	0
Setting atom values ...
  1 settings made for vy
	set atom 1 diameter 2
Setting atom values ...
  1 settings made for diameter
	set atom 1 density  1.90985485103132161955691
Setting atom values ...
  1 settings made for density
	set atom 1 omegay   0
Setting atom values ...
  1 settings made for omegay
	set	atom 2 vx 0
Setting atom values ...
  1 settings made for vx
	set	atom 2 vy 0
Setting atom values ...
  1 settings made for vy
	set atom 2 diameter 1
Setting atom values ...
  1 settings made for diameter
	set atom 2 density  1.90985485103132161955691
Setting atom values ...
  1 settings made for density
	neighbor		1 bin
	neigh_modify	delay 0
	fix 			m1 all property/global youngsModulus peratomtype 763.94194041252864782277e7 763.94194041252864782277e7
	fix 			m2 all property/global poissonsRatio peratomtype 0.3 0.3
	fix 			m3 all property/global coefficientRestitution peratomtypepair 2 0.5 0.5 0.5 0.5
	fix 			m4 all property/global coefficientFriction peratomtypepair 2 0.5 0.5 0.5 0.5
	fix 		 	m5 all property/global characteristicVelocity scalar 10
	pair_style		gran/hooke/history/energy  1  0
	pair_coeff		* *
	communicate		single vel yes
	fix    			1 all nve/sphere
	timestep		0.0000001
	run 0
Setting up run ...
Step Temp E_pair E_mol TotEng Press
0    266.66604            0            0    199.99953 0.00026666604
Loop time of 9.53674e-07 on 1 procs for 0 steps with 2 atoms

Pair  time (%) = 0 (0)
Neigh time (%) = 0 (0)
Comm  time (%) = 0 (0)
Outpt time (%) = 0 (0)
Other time (%) = 9.53674e-07 (100)

	compute			rot_e all erotate/sphere
	compute		    	epotN all reduce sum f_CPEn
	compute			edisN all reduce sum f_CDEn
	compute			epotT all reduce sum f_CPEt
	compute			edisTV all reduce sum f_CDEVt
	compute			edisTF all reduce sum f_CDEFt
	compute			workT all reduce sum f_CTFW
	compute			edisH all reduce sum f_DEH
	variable		eCon equal "ke + c_rot_e + c_epotN"
	variable		eTot equal "v_eCon + c_edisN + c_workT + c_edisTF+c_edisTV+c_edisH"
	variable		eKin equal "ke"
	thermo_style		custom step atoms ke c_rot_e c_epotN c_epotT c_edisN c_edisTV c_edisTF c_workT v_eCon v_eTot c_edisH
	thermo			1000
	thermo_modify		lost ignore norm no
	compute_modify		thermo_temp dynamic yes
	dump			mydmp all custom 10 files/dump-SubStep_hooke_history_energy-0_En0_5_COF0_5_PO0_3.65 id type mass x y z ix iy iz vx vy vz fx fy fz omegax omegay omegaz radius f_CPEn f_CDEn f_CPEt f_CDEVt f_CDEFt f_CTFW f_DEH
	run			10000
Setting up run ...
Step Atoms KinEng rot_e epotN epotT edisN edisTV edisTF workT eCon eTot edisH
0        2    399.99906            0            0            0            0            0            0            0    399.99906    399.99906            0
Averages over the last 6 of 11 rows, steps 5000 to 10000:
Atoms KinEng rot_e epotN epotT edisN edisTV edisTF workT eCon eTot edisH
2 399.999 0 0 0 0 0 0 0 399.999 399.999 0
Loop time of 0.025331 on 1 procs for 10000 steps with 2 atoms

Pair  time (%) = 0.00242329 (9.56648)
Neigh time (%) = 0 (0)
Comm  time (%) = 0.000501871 (1.98125)
Outpt time (%) = 0.0164838 (65.0735)
Other time (%) = 0.00592208 (23.3788)

files/SubStep_hooke_history_energy-0_En0_5_COF0_5_PO0_3_65_0.dat
files/SubStep_hooke_history_energy-0_En0_5_COF0_5_PO0_3_65_1.dat
files/SubStep_hooke_history_energy-0_En0_5_COF0_5_PO0_3_65_2.dat
~1.22173047639603070385
~1.22173047639603070385, 49.51303021498850309956, 51.40953893117886257609
LIGGGHTS 1.2.8 based on lammps-10Mar10
	dimension 3
	atom_style granular
	boundary f f f
	newton off
	region dominio block 0 100 0 100 0 100 units box
	create_box 2 dominio
Created orthogonal box = (0 0 0) to (100 100 100)
	create_atoms 1 single 49.0 50.0 50 units box
Created 1 atoms
	create_atoms 2 single 	49.51303021498850309956 	51.40953893117886257609 50 units box
Created 1 atoms
	set atom 1 vx 	10
Setting atom values ...
  1 settings made for vx
	set atom 1 vy 	0
Setting atom values ...
  1 settings made for vy
	set atom 1 diameter 2
Setting atom values ...
  1 settings made for diameter
	set atom 1 density  1.90985485103132161955691
Setting atom values ...
  1 settings made for density
	set atom 1 omegay   0
Setting atom values ...
  1 settings made for omegay
	set	atom 2 vx 0
Setting atom values ...
  1 settings made for vx
	set	atom 2 vy 0
Setting atom values ...
  1 settings made for vy
	set atom 2 diameter 1
Setting atom values ...
  1 settings made for diameter
	set atom 2 density  1.90985485103132161955691
Setting atom values ...
  1 settings made for density
	neighbor		1 bin
	neigh_modify	delay 0
	fix 			m1 all property/global youngsModulus peratomtype 763.94194041252864782277e7 763.94194041252864782277e7
	fix 			m2 all property/global poissonsRatio peratomtype 0.3 0.3
	fix 			m3 all property/global coefficientRestitution peratomtypepair 2 0.5 0.5 0.5 0.5
	fix 			m4 all property/global coefficientFriction peratomtypepair 2 0.5 0.5 0.5 0.5
	fix 		 	m5 all property/global characteristicVelocity scalar 10
	pair_style		gran/hooke/history/energy  1  0
	pair_coeff		* *
	communicate		single vel yes
	fix    			1 all nve/sphere
	timestep		0.0000001
	run 0
Setting up run ...
Step Temp E_pair E_mol TotEng Press
0    266.66604            0            0    199.99953 0.00026666604
Loop time of 9.53674e-07 on 1 procs for 0 steps with 2 atoms

Pair  time (%) = 0 (0)
Neigh time (%) = 0 (0)
Comm  time (%) = 0 (0)
Outpt time (%) = 0 (0)
Other time (%) = 9.53674e-07 (100)

	compute			rot_e all erotate/sphere
	compute		    	epotN all reduce sum f_CPEn
	compute			edisN all reduce sum f_CDEn
	compute			epotT all reduce sum f_CPEt
	compute			edisTV all reduce sum f_CDEVt
	compute			edisTF all reduce sum f_CDEFt
	compute			workT all reduce sum f_CTFW
	compute			edisH all reduce sum f_DEH
	variable		eCon equal "ke + c_rot_e + c_epotN"
	variable		eTot equal "v_eCon + c_edisN + c_workT + c_edisTF+c_edisTV+c_edisH"
	variable		eKin equal "ke"
	thermo_style		custom step atoms ke c_rot_e c_epotN c_epotT c_edisN c_edisTV c_edisTF c_workT v_eCon v_eTot c_edisH
	thermo			1000
	thermo_modify		lost ignore norm no
	compute_modify		thermo_temp dynamic yes
	dump			mydmp all custom 10 files/dump-SubStep_hooke_history_energy-0_En0_5_COF0_5_PO0_3.70 id type mass x y z ix iy iz vx vy vz fx fy fz omegax omegay omegaz radius f_CPEn f_CDEn f_CPEt f_CDEVt f_CDEFt f_CTFW f_DEH
	run			10000
Setting up run ...
Step Atoms KinEng rot_e epotN epotT edisN edisTV edisTF workT eCon eTot edisH
0        2    399.99906            0            0            0            0            0            0            0    399.99906    399.99906            0
Averages over the last 6 of 11 rows, steps 5000 to 10000:
Atoms KinEng rot_e epotN epotT edisN edisTV edisTF workT eCon eTot edisH
2 376.97 7.91881 0 0 0 0 0 0 384.889 400.004 15.1155
Loop time of 0.03704 on 1 procs for 10000 steps with 2 atoms

Pair  time (%) = 0.00624228 (16.8528)
Neigh time (%) = 0 (0)
Comm  time (%) = 0.000544548 (1.47016)
Outpt time (%) = 0.023658 (63.8716)
Other time (%) = 0.00659513 (17.8054)

files/SubStep_hooke_history_energy-0_En0_5_COF0_5_PO0_3_70_0.dat
files/SubStep_hooke_history_energy-0_En0_5_COF0_5_PO0_3_70_1.dat
files/SubStep_hooke_history_energy-0_En0_5_COF0_5_PO0_3_70_2.dat
1.3089969389957471827
1.3089969389957471827, 49.38822856765378114351, ~48.55111126056639756988
LIGGGHTS 1.2.8 based on lammps-10Mar10
	dimension 3
	atom_style granular
	boundary f f f
	newton off
	region dominio block 0 100 0 100 0 100 units box
	create_box 2 dominio
Created orthogonal box = (0 0 0) to (100 100 100)
	create_atoms 1 single 49.0 50.0 50 units box
Created 1 atoms
	create_atoms 2 single 	49.38822856765378114351 	~48.55111126056639756988 50 units box
Created 1 atoms
	set atom 1 vx 	10
Setting atom values ...
  1 settings made for vx
	set atom 1 vy 	0
Setting atom values ...
  1 settings made for vy
	set atom 1 diameter 2
Setting atom values ...
  1 settings made for diameter
	set atom 1 density  1.90985485103132161955691
Setting atom values ...
  1 settings made for density
	set atom 1 omegay   0
Setting atom values ...
  1 settings made for omegay
	set	atom 2 vx 0
Setting atom values ...
  1 settings made for vx
	set	atom 2 vy 0
Setting atom values ...
  1 settings made for vy
	set atom 2 diameter 1
Setting atom values ...
  1 settings made for diameter
	set atom 2 density  1.90985485103132161955691
Setting atom values ...
  1 settings made for density
	neighbor		1 bin
	neigh_modify	delay 0
	fix 			m1 all property/global youngsModulus peratomtype 763.94194041252864782277e7 763.94194041252864782277e7
	fix 			m2 all property/global poissonsRatio peratomtype 0.3 0.3
	fix 			m3 all property/global coefficientRestitution peratomtypepair 2 0.5 0.5 0.5 0.5
	fix 			m4 all property/global coefficientFriction peratomtypepair 2 0.5 0.5 0.5 0.5
	fix 		 	m5 all property/global characteristicVelocity scalar 10
	pair_style		gran/hooke/history/energy  1  0
	pair_coeff		* *
	communicate		single vel yes
	fix    			1 all nve/sphere
	timestep		0.0000001
	run 0
Setting up run ...
Step Temp E_pair E_mol TotEng Press
0    266.66604            0            0    199.99953 0.00026666604
Loop time of 9.53674e-07 on 1 procs for 0 steps with 2 atoms

Pair  time (%) = 0 (0)
Neigh time (%) = 0 (0)
Comm  time (%) = 0 (0)
Outpt time (%) = 0 (0)
Other time (%) = 9.53674e-07 (100)

	compute			rot_e all erotate/sphere
	compute		    	epotN all reduce sum f_CPEn
	compute			edisN all reduce sum f_CDEn
	compute			epotT all reduce sum f_CPEt
	compute			edisTV all reduce sum f_CDEVt
	compute			edisTF all reduce sum f_CDEFt
	compute			workT all reduce sum f_CTFW
	compute			edisH all reduce sum f_DEH
	variable		eCon equal "ke + c_rot_e + c_epotN"
	variable		eTot equal "v_eCon + c_edisN + c_workT + c_edisTF+c_edisTV+c_edisH"
	variable		eKin equal "ke"
	thermo_style		custom step atoms ke c_rot_e c_epotN c_epotT c_edisN c_edisTV c_edisTF c_workT v_eCon v_eTot c_edisH
	thermo			1000
	thermo_modify		lost ignore norm no
	compute_modify		thermo_temp dynamic yes
	dump			mydmp all custom 10 files/dump-SubStep_hooke_history_energy-0_En0_5_COF0_5_PO0_3.75 id type mass x y z ix iy iz vx vy vz fx fy fz omegax omegay omegaz radius f_CPEn f_CDEn f_CPEt f_CDEVt f_CDEFt f_CTFW f_DEH
	run			10000
Setting up run ...
Step Atoms KinEng rot_e epotN epotT edisN edisTV edisTF workT eCon eTot edisH
0        2    399.99906            0            0            0            0            0            0            0    399.99906    399.99906            0
Averages over the last 6 of 11 rows, steps 5000 to 10000:
Atoms KinEng rot_e epotN epotT edisN edisTV edisTF workT eCon eTot edisH
2 399.999 0 0 0 0 0 0 0 399.999 399.999 0
Loop time of 0.0318549 on 1 procs for 10000 steps with 2 atoms

Pair  time (%) = 0.00265694 (8.34076)
Neigh time (%) = 0 (0)
Comm  time (%) = 0.000574827 (1.80452)
Outpt time (%) = 0.02212 (69.4399)
Other time (%) = 0.00650311 (20.4148)

files/SubStep_hooke_history_energy-0_En0_5_COF0_5_PO0_3_75_0.dat
files/SubStep_hooke_history_energy-0_En0_5_COF0_5_PO0_3_75_1.dat
files/SubStep_hooke_history_energy-0_En0_5_COF0_5_PO0_3_75_2.dat
~1.39626340159546366155
~1.39626340159546366155, 49.26047226650039552326, ~51.47721162951831208906
LIGGGHTS 1.2.8 based on lammps-10Mar10
	dimension 3
	atom_style granular
	boundary f f f
	newton off
	region dominio block 0 100 0 100 0 100 units box
	create_box 2 dominio
Created orthogonal box = (0 0 0) to (100 100 100)
	create_atoms 1 single 49.0 50.0 50 units box
Created 1 atoms
	create_atoms 2 single 	49.26047226650039552326 	~51.47721162951831208906 50 units box
Created 1 atoms
	set atom 1 vx 	10
Setting atom values ...
  1 settings made for vx
	set atom 1 vy 	0
Setting atom values ...
  1 settings made for vy
	set atom 1 diameter 2
Setting atom values ...
  1 settings made for diameter
	set atom 1 density  1.90985485103132161955691
Setting atom values ...
  1 settings made for density
	set atom 1 omegay   0
Setting atom values ...
  1 settings made for omegay
	set	atom 2 vx 0
Setting atom values ...
  1 settings made for vx
	set	atom 2 vy 0
Setting atom values ...
  1 settings made for vy
	set atom 2 diameter 1
Setting atom values ...
  1 settings made for diameter
	set atom 2 density  1.90985485103132161955691
Setting atom values ...
  1 settings made for density
	neighbor		1 bin
	neigh_modify	delay 0
	fix 			m1 all property/global youngsModulus peratomtype 763.94194041252864782277e7 763.94194041252864782277e7
	fix 			m2 all property/global poissonsRatio peratomtype 0.3 0.3
	fix 			m3 all property/global coefficientRestitution peratomtypepair 2 0.5 0.5 0.5 0.5
	fix 			m4 all property/global coefficientFriction peratomtypepair 2 0.5 0.5 0.5 0.5
	fix 		 	m5 all property/global characteristicVelocity scalar 10
	pair_style		gran/hooke/history/energy  1  0
	pair_coeff		* *
	communicate		single vel yes
	fix    			1 all nve/sphere
	timestep		0.0000001
	run 0
Setting up run ...
Step Temp E_pair E_mol TotEng Press
0    266.66604            0            0    199.99953 0.00026666604
Loop time of 9.53674e-07 on 1 procs for 0 steps with 2 atoms

Pair  time (%) = 0 (0)
Neigh time (%) = 0 (0)
Comm  time (%) = 0 (0)
Outpt time (%) = 0 (0)
Other time (%) = 9.53674e-07 (100)

	compute			rot_e all erotate/sphere
	compute		    	epotN all reduce sum f_CPEn
	compute			edisN all reduce sum f_CDEn
	compute			epotT all reduce sum f_CPEt
	compute			edisTV all reduce sum f_CDEVt
	compute			edisTF all reduce sum f_CDEFt
	compute			workT all reduce sum f_CTFW
	compute			edisH all reduce sum f_DEH
	variable		eCon equal "ke + c_rot_e + c_epotN"
	variable		eTot equal "v_eCon + c_edisN + c_workT + c_edisTF+c_edisTV+c_edisH"
	variable		eKin equal "ke"
	thermo_style		custom step atoms ke c_rot_e c_epotN c_epotT c_edisN c_edisTV c_edisTF c_workT v_eCon v_eTot c_edisH
	thermo			1000
	thermo_modify		lost ignore norm no
	compute_modify		thermo_temp dynamic yes
	dump			mydmp all custom 10 files/dump-SubStep_hooke_history_energy-0_En0_5_COF0_5_PO0_3.80 id type mass x y z ix iy iz vx vy vz fx fy fz omegax omegay omegaz radius f_CPEn f_CDEn f_CPEt f_CDEVt f_CDEFt f_CTFW f_DEH
	run			10000
Setting up run ...
Step Atoms KinEng rot_e epotN epotT edisN edisTV edisTF workT eCon eTot edisH
0        2    399.99906            0            0            0            0            0            0            0    399.99906    399.99906            0
Averages over the last 6 of 11 rows, steps 5000 to 10000:
Atoms KinEng rot_e epotN epotT edisN edisTV edisTF workT eCon eTot edisH
2 399.999 0 0 0 0 0 0 0 399.999 399.999 0
Loop time of 0.0314331 on 1 procs for 10000 steps with 2 atoms

Pair  time (%) = 0.00285506 (9.08298)
Neigh time (%) = 0 (0)
Comm  time (%) = 0.000552893 (1.75895)
Outpt time (%) = 0.0216796 (68.9707)
Other time (%) = 0.00634551 (20.1873)

files/SubStep_hooke_history_energy-0_En0_5_COF0_5_PO0_3_80_0.dat
files/SubStep_hooke_history_energy-0_En0_5_COF0_5_PO0_3_80_1.dat
files/SubStep_hooke_history_energy-0_En0_5_COF0_5_PO0_3_80_2.dat
~1.48352986419518014039
~1.48352986419518014039, ~49.13073361412148726032, 51.49429204713761829845
LIGGGHTS 1.2.8 based on lammps-10Mar10
	dimension 3
	atom_style granular
	boundary f f f
	newton off
	region dominio block 0 100 0 100 0 100 units box
	create_box 2 dominio
Created orthogonal box = (0 0 0) to (100 100 100)
	create_atoms 1 single 49.0 50.0 50 units box
Created 1 atoms
	create_atoms 2 single 	~49.13073361412148726032 	51.49429204713761829845 50 units box
Created 1 atoms
	set atom 1 vx 	10
Setting atom values ...
  1 settings made for vx
	set atom 1 vy 	0
Setting atom values ...
  1 settings made for vy
	set atom 1 diameter 2
Setting atom values ...
  1 settings made for diameter
	set atom 1 density  1.90985485103132161955691
Setting atom values ...
  1 settings made for density
	set atom 1 omegay   0
Setting atom values ...
  1 settings made for omegay
	set	atom 2 vx 0
Setting atom values ...
  1 settings made for vx
	set	atom 2 vy 0
Setting atom values ...
  1 settings made for vy
	set atom 2 diameter 1
Setting atom values ...
  1 settings made for diameter
	set atom 2 density  1.90985485103132161955691
Setting atom values ...
  1 settings made for density
	neighbor		1 bin
	neigh_modify	delay 0
	fix 			m1 all property/global youngsModulus peratomtype 763.94194041252864782277e7 763.94194041252864782277e7
	fix 			m2 all property/global poissonsRatio peratomtype 0.3 0.3
	fix 			m3 all property/global coefficientRestitution peratomtypepair 2 0.5 0.5 0.5 0.5
	fix 			m4 all property/global coefficientFriction peratomtypepair 2 0.5 0.5 0.5 0.5
	fix 		 	m5 all property/global characteristicVelocity scalar 10
	pair_style		gran/hooke/history/energy  1  0
	pair_coeff		* *
	communicate		single vel yes
	fix    			1 all nve/sphere
	timestep		0.0000001
	run 0
Setting up run ...
Step Temp E_pair E_mol TotEng Press
0    266.66604            0            0    199.99953 0.00026666604
Loop time of 9.53674e-07 on 1 procs for 0 steps with 2 atoms

Pair  time (%) = 0 (0)
Neigh time (%) = 0 (0)
Comm  time (%) = 0 (0)
Outpt time (%) = 0 (0)
Other time (%) = 9.53674e-07 (100)

	compute			rot_e all erotate/sphere
	compute		    	epotN all reduce sum f_CPEn
	compute			edisN all reduce sum f_CDEn
	compute			epotT all reduce sum f_CPEt
	compute			edisTV all reduce sum f_CDEVt
	compute			edisTF all reduce sum f_CDEFt
	compute			workT all reduce sum f_CTFW
	compute			edisH all reduce sum f_DEH
	variable		eCon equal "ke + c_rot_e + c_epotN"
	variable		eTot equal "v_eCon + c_edisN + c_workT + c_edisTF+c_edisTV+c_edisH"
	variable		eKin equal "ke"
	thermo_style		custom step atoms ke c_rot_e c_epotN c_epotT c_edisN c_edisTV c_edisTF c_workT v_eCon v_eTot c_edisH
	thermo			1000
	thermo_modify		lost ignore norm no
	compute_modify		thermo_temp dynamic yes
	dump			mydmp all custom 10 files/dump-SubStep_hooke_history_energy-0_En0_5_COF0_5_PO0_3.85 id type mass x y z ix iy iz vx vy vz fx fy fz omegax omegay omegaz radius f_CPEn f_CDEn f_CPEt f_CDEVt f_CDEFt f_CTFW f_DEH
	run			10000
Setting up run ...
Step Atoms KinEng rot_e epotN epotT edisN edisTV edisTF workT eCon eTot edisH
0        2    399.99906            0            0            0            0            0            0            0    399.99906    399.99906            0
Averages over the last 6 of 11 rows, steps 5000 to 10000:
Atoms KinEng rot_e epotN epotT edisN edisTV edisTF workT eCon eTot edisH
2 399.999 0 0 0 0 0 0 0 399.999 399.999 0
Loop time of 0.0335169 on 1 procs for 10000 steps with 2 atoms

Pair  time (%) = 0.00300026 (8.95149)
Neigh time (%) = 0 (0)
Comm  time (%) = 0.000494242 (1.47461)
Outpt time (%) = 0.0233932 (69.7951)
Other time (%) = 0.00662923 (19.7788)

files/SubStep_hooke_history_energy-0_En0_5_COF0_5_PO0_3_85_0.dat
files/SubStep_hooke_history_energy-0_En0_5_COF0_5_PO0_3_85_1.dat
files/SubStep_hooke_history_energy-0_En0_5_COF0_5_PO0_3_85_2.dat
/home/lagar/liggghts-energy-terms/pyPost/pyCB.py
files/dump-SubStep_hooke_history_energy-0_En0_5_COF0_5_PO0_3.*
files/plot_SubStep_hooke_history_energy-0_En0_5_COF0_5_PO0_3.dat
0.5
